LAMMPS (29 Aug 2024 - Development - patch_4Feb2020-21274-g90b616edd6-modified)

# ----------------- Init Section -----------------

include "04_cg_sample_01.in.init"
# Input variables
variable run    string 04_cg_sample_01
variable ts     equal  15.          # timestep
variable tf     equal  300.         # Equilibrium temperature
variable pf     equal  1.           # Equilibrium pressure
variable cutoff equal  14.          # For interactions in real space
variable skin   equal  4.           # Skin distance for neighbour list
variable s      equal  5            # sample interval for averaging
variable cl     equal  200          # correlation length for averaging
variable prod   equal  100000       # Equilibration steps (2 ns)

# Force field setup.
boundary        p p p
units           real
atom_style hybrid molecular ellipsoid
bond_style ellipsoid
special_bonds lj/coul 0.0 0.2 0.5
# gamma upsilon mu lj_cutoff coul_cutoff
pair_style molc/long 1 1 -3 14 14

# Neighbour list.
neighbor        4 bin

# ----------------- Atom Definition Section -----------------

read_data "04_cg_sample_01.data"
Reading data file ...
  orthogonal box = (-74.9454 -72.0258 -36.5586) to (74.9454 72.0258 186.559)
  reading atoms ...
  98282 atoms
  98282 ellipsoids
  reading velocities ...
  98282 velocities
  scanning bonds ...
  orthogonal box = (-74.9454 -72.0258 -36.5586) to (74.9454 72.0258 186.559)
  reading bonds ...
  16920 bonds
Finding 1-2 1-3 1-4 neighbors ...
     2 = max # of 1-2 neighbors
     2 = max # of 1-3 neighbors
     4 = max # of 1-4 neighbors
     6 = max # of special neighbors

# ----------------- Settings Section -----------------

include "04_cg_sample_01.in.settings"
mass 1 72.0634

# MOLC parameters.
pair_coeff 1 1 1.0627 3.4740 0.97313 1 0.36835 4 1.931251    0.539650    1.011545    0.0668 0.446082    0.057700   -0.000000    0.6529 -0.712230    1.072980    0.000000   -0.4227 -0.653529   -1.140853    0.000000   -0.2970
mass 2  58.0366

# MOLC parameters.
pair_coeff 2 2 1.0116 3.3432 0.53249 0.53249 1 3 -0.422955   -1.245763    0.000000   -0.313 0.527142    0.083536    0.000000    0.716 -0.856806    0.981621    0.000000   -0.403

# 1-2 Bonded potential.
bond_coeff 1 poly 2 0   -0.90854   -3.67091    21.0619    3.46926  cos  2 0   0.468392     1.5682    0.77494          0  cos  2 0   0.051231    1.55637   0.368657          0  cos  2 0   -0.63579    1.57002   -0.40024          0  cos  1 0  -0.291573       1.57  cos  2 0 -0.0454135    1.56739  -0.159876          0  cos  2 0  0.0689315    1.56411   0.326725          0  cos  2 0 -0.0380405    1.56469  -0.222524          0  cos  1 0   0.214176    1.57072  cos  2 0    0.06476      1.555   0.672605          0  poly 2 0    0.63728    2.15358     35.456   0.284144  cos  1 0    1.06641     4.7121  poly 0 0  poly 2 0    1.09113    2.29165    13.2812    1.04108  poly 2 0    1.29123    1.05776    4.62779   0.409837  poly 2 0    1.71005    1.02317    12.3945 -0.0340389

mass 3  40.4364

# MOLC parameters.
# epsilon0, sigma0, eps_x, eps_y, eps_z, n_charges, (xi, yi, zi, qi)_ntimes
pair_coeff 3 3 0.18519 3.1589 1 1 1 3 0.00000  0.154600  0.0  -1.1128 0.75695  0.585882  0.0   0.5564 -0.75695  0.585882  0.0   0.5564

# Force field setup.
kspace_style pppm/molc 1e-4

# ----------------- Run Section -----------------

include "04_cg_sample_01.in.run"
# Physical observables.
compute q               all property/atom quatw quati quatj quatk
compute diameter        all property/atom shapex shapey shapez
compute temp_trasl      all temp
compute temp_rototrasl  all temp/asphere dof all
compute press_trasl     all pressure temp_trasl

# Derived variables.
variable d       equal 200*$s
variable d       equal 200*5
variable dcycle  equal 100000/$s
variable dcycle  equal 100000/5

# Output.
thermo          $d
thermo          1000
thermo_style custom step etotal evdwl ecoul elong ebond ke pe temp press pxx pyy pzz vol density cpu
thermo_modify temp temp_rototrasl
thermo_modify press press_trasl
thermo_modify flush yes

# Save the trajectory.
dump TRJ all custom 20000 04_cg_sample_01.dump id type xu yu zu c_q[1] c_q[2] c_q[3] c_q[4] c_diameter[1] c_diameter[2] c_diameter[3] vx vy vz angmomx angmomy angmomz mol
dump_modify TRJ colname c_q[1] quatw colname c_q[2] quati colname c_q[3] quatj colname c_q[4] quatk sort id

# Remove bad contacts from the initial guess.
minimize 0.01 0.01 100 200

CITE-CITE-CITE-CITE-CITE-CITE-CITE-CITE-CITE-CITE-CITE-CITE-CITE

Your simulation uses code contributions which should be cited:

- USER-MOLC package:

Article{C9CP04120F,
  author = {Ricci, Matteo and Roscioni, Otello Maria and Querciagrossa, Lara and Zannoni, Claudio},
  title  = {MOLC. A reversible coarse grained approach using anisotropic beads for the modelling of organic functional materials},
  journal  = {Phys. Chem. Chem. Phys.},
  year  = 2019,
  volume = 21,
  issue  = 47,
  pages  = {26195-26211},
  publisher = {The Royal Society of Chemistry},
  doi  = {10.1039/C9CP04120F},
  url  = {http://dx.doi.org/10.1039/C9CP04120F},
  abstract  = {We describe the development and implementation of a coarse grained (CG) modelling approach where complex organic molecules, and particularly the \pi-conjugated ones often employed in organic electronics, are modelled in terms of connected sets of attractive--repulsive biaxial Gay--Berne ellipsoidal beads. The CG model is aimed at reproducing realistically large scale morphologies (e.g. up to 100 nm thick films) for the materials involved, while being able to generate, with a back-mapping procedure, atomistic coordinates suitable, with limited effort, to be applied for charge transport calculations. Detailed methodology and an application to the common hole transporter material \alpha-NPD are provided.}
}

- Type Label Framework: https://doi.org/10.1021/acs.jpcb.3c08419

@Article{Gissinger24,
 author = {Jacob R. Gissinger, Ilia Nikiforov, Yaser Afshar, Brendon Waters, Moon-ki Choi, Daniel S. Karls, Alexander Stukowski, Wonpil Im, Hendrik Heinz, Axel Kohlmeyer, and Ellad B. Tadmor},
 title = {Type Label Framework for Bonded Force Fields in LAMMPS},
 journal = {J. Phys. Chem. B},
 year =    2024,
 volume =  128,
 number =  13,
 pages =   {3282--3297}
}

CITE-CITE-CITE-CITE-CITE-CITE-CITE-CITE-CITE-CITE-CITE-CITE-CITE

PPPM/MOlC initialization ...
  G vector (1/distance) = 0.18623151
  grid = 54 54 75
  stencil order = 5
  estimated absolute RMS force accuracy = 0.03747114
  estimated relative force accuracy = 0.00011284322
  3d grid and FFT values/proc = 94123 0
Generated 3 of 3 mixed pair_coeff terms from arithmetic mixing rule
Step         TotEng         E_vdwl         E_coul         E_long         E_bond         KinEng         PotEng          Temp          Press           Pxx            Pyy            Pzz           Volume        Density          CPU
0   4.0381783e+10  4.038285e+10   4578503.7     -5673378.8     -195370.34      222600.62      4.038156e+10   379.91838      2.2991627e+09  6.8964649e+09  327085.87      696174.08      4817557.4      1.5373246      0
Loop time of 18.7436 on 32 procs for 17 steps with 98282 atoms

Minimization stats:
  Stopping criterion = energy tolerance
  Energy initial, next-to-last, final =
  Force two-norm initial, final = 6.1577828e+10 1551.2344
  Force max component initial, final = 2.5308359e+09 20.770227
  Final line search alpha, max atom move = 0.0021958024 0.045607315
  Iterations, force evaluations = 17 22

# Relax the cell along the direction perpendicular to the slab.
timestep        15
fix             NPH all nph/asphere z 1 1 $(dt*1000)
fix             NPH all nph/asphere z 1 1 15000
fix_modify      NPH press press_trasl
fix             TEMP all langevin 300 300 $(dt*100) 35785 angmom 0.9
fix             TEMP all langevin 300 300 1500 35785 angmom 0.9
fix_modify      TEMP temp temp_rototrasl
# To avoid losing atoms, run a brief simulation to allow the box dimension to shrink.
run    20000 upto
PPPM/MOlC initialization ...
  G vector (1/distance) = 0.18623151
  grid = 54 54 75
  stencil order = 5
  estimated absolute RMS force accuracy = 0.03747114
  estimated relative force accuracy = 0.00011284322
  3d grid and FFT values/proc = 19278 7560
Generated 3 of 3 mixed pair_coeff terms from arithmetic mixing rule
Step         TotEng         E_vdwl         E_coul         E_long         E_bond         KinEng         PotEng          Temp          Press           Pxx            Pyy            Pzz           Volume        Density          CPU
17  -1006345.7      83587.65       4561385       -5673405.8     -200513.17      222600.62     -1228946.4      379.91838     -552.36444     -511.81972     -601.73662     -543.53697      4817557.4      1.5373246      0
Averages over the last 11 of 21 rows, steps 10000 to 20000:
TotEng E_vdwl E_coul E_long E_bond KinEng PotEng Temp Press Pxx Pyy Pzz Volume Density
-1.04784e+06 102398 4.54056e+06 -5.6707e+06 -196127 176035 -1.22388e+06 300.444 28.4237 85.8565 19.2941 -21.7213 4.07444e+06 1.8181
Loop time of 11896.3 on 32 procs for 19983 steps with 98282 atoms

# Run the remaining production steps.
run    100000 upto
PPPM/MOlC initialization ...
  G vector (1/distance) = 0.18666175
  grid = 54 54 64
  stencil order = 5
  estimated absolute RMS force accuracy = 0.039735829
  estimated relative force accuracy = 0.00011966327
  3d grid and FFT values/proc = 19278 7560
Generated 3 of 3 mixed pair_coeff terms from arithmetic mixing rule
Step         TotEng         E_vdwl         E_coul         E_long         E_bond         KinEng         PotEng          Temp          Press           Pxx            Pyy            Pzz           Volume        Density          CPU
20000  -1048779.2      103159.5       4549096.7     -5681068.1     -196000.76      176033.54     -1224812.7      300.4411       195.44752      337.90814      239.67478      8.7596532      4023077.6      1.8409164      0
Averages over the last 41 of 81 rows, steps 60000 to 100000:
TotEng E_vdwl E_coul E_long E_bond KinEng PotEng Temp Press Pxx Pyy Pzz Volume Density
-1.04902e+06 103773 4.54331e+06 -5.67594e+06 -196126 175953 -1.22497e+06 300.303 289.524 442.349 427.269 0.217354 3.99084e+06 1.85579
Loop time of 44375.3 on 32 procs for 80000 steps with 98282 atoms
