units           real
neighbor        3.0 bin
neigh_modify    check yes
boundary        p p p

# ----------------- Atom Definition Section -----------------

read_data "06_aa_sample_01.data"
  orthogonal box = (0 0 0) to (149.891 144.052 182.142)
  reading atoms ...
  376785 atoms
  scanning bonds ...
  scanning angles ...
  scanning dihedrals ...
  reading bonds ...
  298710 bonds
  reading angles ...
  328635 angles
  reading dihedrals ...
  306720 dihedrals

# ----------------- Settings Section -----------------

include "06_aa_sample_01.in.settings"
    pair_style  lj/cut/tip4p/long 1 2 1 1 0.1546 12.
    pair_modify mix geometric
    special_bonds lj/coul 0.0 0.0 0.5 angle yes dihedral yes
    kspace_style pppm/tip4p 0.0001
    pair_coeff 1 1 0.18519 3.1589
    pair_coeff 2 2 0.0 0.0
    pair_coeff 3 3 0.06597 3.50000
    pair_coeff 4 4 0.02999 2.50000
    pair_coeff 5 5 0.16992 3.12000
    pair_coeff 6 6 0.00000 0.00000
    pair_coeff 7 7 0.06597 3.50000
    pair_coeff 8 8 0.10495 3.75000
    pair_coeff 9 9 0.16992 3.00000
    pair_coeff 10 10 0.20990 2.96000
    pair_coeff 11 11 0.00000 0.00000
    pair_coeff 12 12 0.10495 3.75000
    pair_coeff 13 13 0.20990 2.96000
    pair_coeff 14 14 0.16992 3.00000
    pair_coeff 15 15 0.01499 2.42000
    pair_coeff 16 16 0.06597 3.50000
    pair_coeff 17 17 0.06597 3.50000
    bond_coeff 1     450.0    0.9572
    bond_coeff 2 316.8485 1.5220
    bond_coeff 3 316.8485 1.5220
    bond_coeff 4 569.7277 1.2290
    bond_coeff 5 569.7277 1.2290
    bond_coeff 6 449.7850 1.3640
    bond_coeff 7 213.8978 1.3270
    bond_coeff 8 267.8720 1.5290
    bond_coeff 9 339.8376 1.0900
    bond_coeff 10 319.8471 1.4100
    bond_coeff 11 319.8471 1.4100
    bond_coeff 12 552.7358 0.9450
    angle_coeff 1     55.0     104.52
    angle_coeff 2 79.96178 120.40000
    angle_coeff 3 79.96178 120.40000
    angle_coeff 4 69.96656 108.00000
    angle_coeff 5 79.96178 121.00000
    angle_coeff 6 62.96990 111.10000
    angle_coeff 7 62.96990 111.10000
    angle_coeff 8 34.98328 109.50000
    angle_coeff 9 34.98328 109.50000
    angle_coeff 10 37.48208 110.70000
    angle_coeff 11 49.97611 109.50000
    angle_coeff 12 32.98423 107.80000
    angle_coeff 13 34.98328 109.50000
    angle_coeff 14 49.97611 109.50000
    angle_coeff 15 34.98328 109.50000
    angle_coeff 16 34.98328 113.00000
    angle_coeff 17 54.97372 108.50000
    angle_coeff 18 82.96034 123.40000
    angle_coeff 19 82.96034 116.90000
    angle_coeff 20 80.96130 111.40000
    angle_coeff 21 49.97611 109.50000
    angle_coeff 22 49.97611 109.50000
    dihedral_coeff 1 0.09995 -0.00000 0.00000 0.00000
    dihedral_coeff 2 0.07597 -0.00000 0.00000 0.00000
    dihedral_coeff 3 -1.64121 -0.12594 -0.00000 0.00000
    dihedral_coeff 4 -0.19791 -0.00000 -0.00000 0.00000
    dihedral_coeff 5 1.49928 5.49737 0.00000 0.00000
    dihedral_coeff 6 0.54974 0.54574 -0.00000 0.00000
    dihedral_coeff 7 -0.00000 0.54574 0.00000 0.00000
    dihedral_coeff 8 0.55274 -0.00000 0.00000 0.00000
    dihedral_coeff 9 0.41680 1.22741 0.00000 0.00000
    dihedral_coeff 10 -0.00000 5.12155 0.00000 0.00000
    dihedral_coeff 11 4.66677 5.12155 0.00000 0.00000
    dihedral_coeff 12 -0.00000 -0.00000 0.00000 0.00000
    dihedral_coeff 13 -0.00000 -0.00000 0.00000 0.00000
    dihedral_coeff 14 -0.29986 -0.00000 -0.00000 0.00000
    dihedral_coeff 15 -0.46777 -0.00000 -0.00000 0.00000
    dihedral_coeff 16 -0.44978 -0.00000 -0.00000 0.00000
    dihedral_coeff 17 -0.13194 -0.00000 -0.00000 0.00000
    dihedral_coeff 18 -0.00000 -0.00000 0.00000 0.00000
    dihedral_coeff 19 -0.00000 5.49737 0.00000 0.00000
    dihedral_coeff 20 -0.54974 -0.00000 0.00000 0.00000
    dihedral_coeff 21 -0.54974 -0.00000 0.00000 0.00000
    dihedral_coeff 22 -0.00000 -0.00000 0.00000 0.00000
    dihedral_coeff 23 -0.00000 -0.00000 0.00000 0.00000
    dihedral_coeff 24 -0.00000 -0.00000 0.00000 0.00000
    dihedral_coeff 25 -0.54974 -0.00000 0.00000 0.00000
    dihedral_coeff 26 -0.84760 -0.17392 -0.00000 0.00000
    dihedral_coeff 27 -0.00000 -0.00000 0.00000 0.00000
    dihedral_coeff 28 -0.01999 -0.24988 -0.00000 0.00000
    dihedral_coeff 29 -0.00000 -0.00000 0.00000 0.00000
    dihedral_coeff 30 -0.01999 -0.24988 -0.00000 0.00000
    dihedral_coeff 31 -0.01999 -0.24988 -0.00000 0.00000

# ----------------- Run Section -----------------

include "06_aa_sample_01.in.run"
# Physical observables.
thermo          1000
thermo_style custom step etotal evdwl ecoul elong ebond ke pe temp press pxx pyy pzz vol density cpu
thermo_modify flush yes
dump 1 all dcd 10000 06_aa_sample_01.dcd
dump_modify 1 unwrap yes

# Rapid equilibration.
minimize 0.001 0.001 200 200
PPPM initialization ...
  extracting TIP4P info from pair style
  G vector (1/distance) = 0.21664
  grid = 64 60 72
  stencil order = 5
  estimated absolute RMS force accuracy = 0.040256
  estimated relative force accuracy = 0.00012123
  3d grid and FFT values/proc = 2002 280
  update every 1 steps, delay 0 steps, check yes
Step TotEng E_vdwl E_coul E_long E_bond KinEng PotEng Temp Press Pxx Pyy Pzz Volume Density CPU
0 3.5839184e+18 3.5839184e+18    5088213.4   -6313412.5     10313824            0 3.5839184e+18            0 2.4994086e+17 4.9677426e+17 3.6714379e+16 2.1633395e+17      3932828    1.0940709            0
Loop time of 1.88007 on 1280 procs for 160 steps with 376785 atoms

Minimization stats:
  Stopping criterion = max force evaluations
  Energy initial, next-to-last, final =
  Force two-norm initial, final = 7.98978e+20 2129.33
  Force max component initial, final = 4.53898e+20 85.7723
  Final line search alpha, max atom move = 0.000497332 0.0426573
  Iterations, force evaluations = 160 200

timestep        1.0
velocity        all create 300 391624 dist gaussian
fix             2 all nvt temp 300 300 100.
run             10000 post no
PPPM initialization ...
  extracting TIP4P info from pair style
  G vector (1/distance) = 0.21664
  grid = 64 60 72
  stencil order = 5
  estimated absolute RMS force accuracy = 0.040256
  estimated relative force accuracy = 0.00012123
  3d grid and FFT values/proc = 2002 280
Step TotEng E_vdwl E_coul E_long E_bond KinEng PotEng Temp Press Pxx Pyy Pzz Volume Density CPU
160    -631770.5    163066.42    4900039.8     -6313519    63811.444    336936.46   -968706.96          300    6887.7282    7106.0532    6621.6967    6935.4346      3932828    1.0940709            0
Averages over the last 6 of 12 rows, steps 6000 to 10160:
TotEng E_vdwl E_coul E_long E_bond KinEng PotEng Temp Press Pxx Pyy Pzz Volume Density
-712369 186151 4.8071e+06 -6.31487e+06 156576 337218 -1.04959e+06 300.251 -108.307 -86.105 -0.475973 -238.34 3.93283e+06 1.09407
Loop time of 90.4961 on 1280 procs for 10000 steps with 376785 atoms

# 1 ns annealing.
unfix 2
fix             alkyl all shake .0001 10 0 m 1.
  find clusters CPU = 4.88134 secs
timestep        2.0
fix             2 all npt temp 300 300 200. z 1 1 2000.
run             500000
PPPM initialization ...
  extracting TIP4P info from pair style
  G vector (1/distance) = 0.21664
  grid = 64 60 72
  stencil order = 5
  estimated absolute RMS force accuracy = 0.040256
  estimated relative force accuracy = 0.00012123
  3d grid and FFT values/proc = 2002 280
Step TotEng E_vdwl E_coul E_long E_bond KinEng PotEng Temp Press Pxx Pyy Pzz Volume Density CPU
10160   -837240.14    190665.26    4797439.3   -6314929.6    38451.901     337311.8   -1174551.9      371.539    1179.1405    1204.3195    1188.0581    1145.0441      3932828    1.0940709            0
Averages over the last 251 of 502 rows, steps 261000 to 510160:
TotEng E_vdwl E_coul E_long E_bond KinEng PotEng Temp Press Pxx Pyy Pzz Volume Density
-748333 81579.7 5.08842e+06 -6.31491e+06 29197.8 272372 -1.02071e+06 300.01 -78.8288 -102.061 -135.216 0.79043 3.88581e+06 1.10731
Loop time of 5545.11 on 1280 procs for 500000 steps with 376785 atoms

# ----------------- Run Section -----------------

# The lines above define the system you want to simulate.
# What you do next is up to you.
# Typically a user would minimize and equilibrate
# the system using commands similar to the following:
#  ----   examples   ----
#
#  -- minimize --
# minimize 1.0e-5 1.0e-7 1000 10000
# (Note: Some fixes, for example "shake", interfere with the minimize command,
#        You can use the "unfix" command to disable them before minimization.)
#  -- declare time step for normal MD --
# timestep 1.0
#  -- run at constant pressure (Nose-Hoover)--
# fix   fxnpt all npt temp 300.0 300.0 100.0 iso 1.0 1.0 1000.0 drag 1.0
#  -- ALTERNATELY, run at constant volume (Nose-Hoover) --
# fix   fxnvt all nvt temp 300.0 300.0 500.0 tchain 1
#  -- ALTERNATELY, run at constant volume using Langevin dynamics. --
#  -- (This is good for sparse CG polymers in implicit solvent.)   --
# fix fxLAN all langevin 300.0 300.0 5000 48279
# fix fxNVE all nve  #(<--needed by fix langevin)
#  -- Now, finally run the simulation --
# run   50000
#  ---- (end of examples) ----
